24

C         -3.24578       -1.13614        0.03257
N         -2.26658       -0.07940        0.00285
C         -2.52363        1.26596       -0.00809
N         -1.41014        1.97364       -0.01035
C         -0.41551        1.04213       -0.00439
C         -0.90943       -0.22702       -0.00196
C         -0.08589       -1.38406        0.00288
O         -0.54290       -2.52384        0.00168
N          1.27717       -1.07849        0.00910
C          1.82860        0.21962        0.00603
O          3.05203        0.38759        0.00699
N          0.93635        1.29233        0.00277
C          1.42812        2.65785        0.01019
C          2.22327       -2.17665        0.02231
H         -4.24958       -0.70507        0.00601
H         -3.11297       -1.70490        0.95660
H         -3.09666       -1.77618       -0.84064
H         -3.52638        1.67319       -0.01021
H          2.52069        2.69697        0.03794
H          1.04037        3.17428        0.89405
H          1.08400        3.16745       -0.89501
H          1.73337       -3.15356        0.02352
H          2.85030       -2.09337        0.91578
H          2.86641       -2.10279       -0.86053
 
